data_c2x

_cell_length_a      12.3564504
_cell_length_b      12.3564504
_cell_length_c      12.3564504
_cell_angle_alpha   109.4712206
_cell_angle_beta    109.4712206
_cell_angle_gamma   109.4712206


loop_
_atom_site_type_symbol
_atom_site_fract_x
_atom_site_fract_y
_atom_site_fract_z
_atom_site_U_iso_or_equiv
_atom_site_occupancy
C 0.0000488249 0.0000099642 -0.0000565612 0.01 1.00
C 0.0000014886 -0.0000125311 -0.0000050909 0.01 1.00
C 0.0000030925 -0.0000034379 -0.0000015530 0.01 1.00
C 0.0000503449 0.0000335294 0.0000090761 0.01 1.00
C -0.0000234691 -0.0000387094 -0.0000136798 0.01 1.00
C -0.0000105852 -0.0000175291 -0.0000051896 0.01 1.00
C -0.0000011434 0.0000032867 -0.0000000550 0.01 1.00
C 0.0000000546 0.0000109379 0.0000019265 0.01 1.00
C -0.0000244888 -0.0000330713 0.0000167524 0.01 1.00
C -0.0000202631 -0.0000241638 0.0000117372 0.01 1.00
C -0.0000048734 -0.0000005556 0.0000001418 0.01 1.00
C -0.0000038782 0.0000038380 0.0000009808 0.01 1.00
C -0.0000074185 0.0000007510 0.0000043020 0.01 1.00
C -0.0000111086 -0.0000148420 0.0000124243 0.01 1.00
C -0.0000062222 -0.0000044282 0.0000023866 0.01 1.00
C -0.0000040704 0.0000004127 0.0000014372 0.01 1.00
C -0.0000019800 0.0000008372 0.0000009523 0.01 1.00
C -0.0000032330 -0.0000066622 0.0000040147 0.01 1.00
C -0.0000009215 -0.0000015619 0.0000043838 0.01 1.00
C 0.0000004223 0.0000070112 0.0000017073 0.01 1.00
C 0.0000007183 -0.0000078996 0.0000009947 0.01 1.00
C 0.0000017449 -0.0000051021 0.0000026919 0.01 1.00
C 0.0000060794 0.0000085051 0.0000017859 0.01 1.00
C 0.0000059937 0.0000110076 0.0000007617 0.01 1.00
C 0.0000020814 -0.0000138252 -0.0000081521 0.01 1.00
C 0.0000040049 -0.0000104904 -0.0000027860 0.01 1.00
C 0.0000105880 0.0000065233 0.0000034202 0.01 1.00
C 0.0000129548 0.0000119406 0.0000018740 0.01 1.00
C 0.0000235595 0.0000097890 -0.0000151688 0.01 1.00
C 0.0000069081 -0.0000249019 -0.0000150915 0.01 1.00
C 0.0000093068 0.0000000265 0.0000012080 0.01 1.00
C 0.0000151877 0.0000073339 0.0000033485 0.01 1.00
C 0.0000181758 -0.0000416911 -0.0000142164 0.01 1.00
C 0.0000083642 -0.0000246223 -0.0000064214 0.01 1.00
C 0.0000184726 0.0000115951 0.0000012210 0.01 1.00
C 0.0000358641 0.0000241597 0.0000039690 0.01 1.00
C -0.0000479967 -0.0001054271 -0.0000387221 0.01 1.00
C -0.0000006382 -0.0000016188 -0.0000005322 0.01 1.00
C 0.0000025463 0.0000054265 0.0000020303 0.01 1.00
C -0.0000274580 0.0000326353 0.0000142361 0.01 1.00
C -0.0000666549 -0.0000081773 0.0000387497 0.01 1.00
C -0.0000144269 -0.0000128108 -0.0000042872 0.01 1.00
C -0.0000072021 -0.0000037478 -0.0000010288 0.01 1.00
C -0.0000182054 0.0000150193 0.0000064475 0.01 1.00
C -0.0000183567 -0.0000182787 -0.0000000010 0.01 1.00
C -0.0000130684 -0.0000111055 -0.0000010020 0.01 1.00
C -0.0000104552 0.0000114997 0.0000027365 0.01 1.00
C -0.0000086818 -0.0000098399 0.0000042953 0.01 1.00
C -0.0000101863 -0.0000119891 0.0000009939 0.01 1.00
C -0.0000045198 0.0000042854 -0.0000003540 0.01 1.00
C -0.0000056584 0.0000084481 0.0000006176 0.01 1.00
C -0.0000011114 0.0000000404 0.0000006030 0.01 1.00
C -0.0000028607 -0.0000061110 0.0000010590 0.01 1.00
C -0.0000000702 -0.0000001027 -0.0000000053 0.01 1.00
C 0.0000007745 0.0000052000 -0.0000006213 0.01 1.00
C 0.0000103933 0.0000172435 -0.0000012227 0.01 1.00
C 0.0000034244 0.0000005654 -0.0000020110 0.01 1.00
C 0.0000046575 -0.0000041779 0.0000003589 0.01 1.00
C 0.0000058407 0.0000013593 0.0000006127 0.01 1.00
C 0.0000201869 0.0000318434 -0.0000040046 0.01 1.00
C 0.0000087326 -0.0000131593 -0.0000027148 0.01 1.00
C 0.0000078273 -0.0000062644 -0.0000005951 0.01 1.00
C 0.0000182539 0.0000182255 -0.0000000189 0.01 1.00
C 0.0000244458 0.0000412085 -0.0000090437 0.01 1.00
C 0.0000089859 -0.0000019137 -0.0000018785 0.01 1.00
C 0.0000053028 -0.0000012869 -0.0000017020 0.01 1.00
C 0.0000102576 0.0000051997 -0.0000007758 0.01 1.00
C 0.0000249939 0.0000386932 0.0000150406 0.01 1.00
C 0.0000665524 0.0001052929 0.0000563867 0.01 1.00
C -0.0000037200 -0.0000117307 -0.0000042153 0.01 1.00
C -0.0000002159 -0.0000029191 -0.0000009197 0.01 1.00
C -0.0000097641 0.0000220263 0.0000150584 0.01 1.00
C -0.0000501351 -0.0000412673 -0.0000167744 0.01 1.00
C -0.0000275634 -0.0000235935 -0.0000124827 0.01 1.00
C -0.0000056592 0.0000102066 0.0000081442 0.01 1.00
C -0.0000249856 -0.0000094324 0.0000137228 0.01 1.00
C -0.0000359658 -0.0000319258 -0.0000117375 0.01 1.00
C -0.0000088989 -0.0000002760 -0.0000009810 0.01 1.00
C -0.0000076943 0.0000067718 0.0000027900 0.01 1.00
C -0.0000074122 0.0000068495 0.0000050451 0.01 1.00
C -0.0000122733 -0.0000050530 0.0000052696 0.01 1.00
C -0.0000106751 -0.0000072709 -0.0000040207 0.01 1.00
C -0.0000077719 -0.0000009657 -0.0000026799 0.01 1.00
C -0.0000011825 0.0000081572 -0.0000011479 0.01 1.00
C -0.0000018640 0.0000049535 0.0000017380 0.01 1.00
C -0.0000068111 -0.0000086233 -0.0000024059 0.01 1.00
C -0.0000059312 -0.0000053459 -0.0000043985 0.01 1.00
C 0.0000040020 0.0000118482 -0.0000033281 0.01 1.00
C -0.0000006814 -0.0000049884 -0.0000001184 0.01 1.00
C -0.0000010133 -0.0000055278 -0.0000014417 0.01 1.00
C 0.0000031241 0.0000071379 -0.0000034242 0.01 1.00
C 0.0000033848 -0.0000010798 0.0000001038 0.01 1.00
C 0.0000028950 -0.0000048473 -0.0000009449 0.01 1.00
C 0.0000067296 0.0000042468 -0.0000018039 0.01 1.00
C 0.0000100617 0.0000110241 -0.0000019158 0.01 1.00
C 0.0000085538 0.0000128419 -0.0000015403 0.01 1.00
C 0.0000110697 0.0000235538 -0.0000041667 0.01 1.00
C 0.0000016726 -0.0000027043 -0.0000009797 0.01 1.00
C 0.0000022104 -0.0000020493 -0.0000019007 0.01 1.00
C 0.0000123559 0.0000175418 0.0000067911 0.01 1.00
C 0.0000029217 -0.0000000574 0.0000028650 0.01 1.00
C 0.0000006574 -0.0000027686 0.0000002818 0.01 1.00
C 0.0000057475 0.0000073512 0.0000021351 0.01 1.00
C 0.0000273398 0.0000415776 0.0000593548 0.01 1.00
C 0.0000000285 0.0000018258 0.0000107903 0.01 1.00
C -0.0000041082 -0.0000012305 0.0000006031 0.01 1.00
C -0.0000027842 0.0000048326 0.0000045173 0.01 1.00
C -0.0000000183 0.0000152872 0.0000151466 0.01 1.00
C 0.0000097274 0.0000249195 0.0000316269 0.01 1.00
C -0.0000182924 -0.0000124352 -0.0000076564 0.01 1.00
C -0.0000116181 -0.0000056369 -0.0000044828 0.01 1.00
C -0.0000040044 0.0000057372 0.0000021146 0.01 1.00
C -0.0000017251 0.0000096116 0.0000078530 0.01 1.00
C -0.0000185372 -0.0000173425 -0.0000068450 0.01 1.00
C -0.0000152422 -0.0000119679 -0.0000078360 0.01 1.00
C -0.0000027461 0.0000047634 -0.0000020016 0.01 1.00
C -0.0000057059 -0.0000034390 0.0000017489 0.01 1.00
C -0.0000102861 -0.0000110718 -0.0000049539 0.01 1.00
C -0.0000049403 -0.0000000477 -0.0000049182 0.01 1.00
C -0.0000003890 0.0000025851 0.0000006885 0.01 1.00
C -0.0000018502 -0.0000021444 -0.0000001253 0.01 1.00
C -0.0000046963 -0.0000043940 -0.0000087307 0.01 1.00
C -0.0000017933 0.0000008855 -0.0000067899 0.01 1.00
C 0.0000046570 0.0000123502 -0.0000059536 0.01 1.00
C 0.0000023632 0.0000028994 -0.0000006750 0.01 1.00
C -0.0000000132 -0.0000031871 -0.0000031038 0.01 1.00
C 0.0000009739 -0.0000005485 -0.0000044593 0.01 1.00
C 0.0000028669 0.0000039447 -0.0000034409 0.01 1.00
C 0.0000021681 0.0000016687 0.0000004463 0.01 1.00
C 0.0000010239 -0.0000006957 -0.0000006175 0.01 1.00
C 0.0000006838 0.0000004821 -0.0000043199 0.01 1.00
C 0.0000075577 0.0000116579 0.0000076597 0.01 1.00
C 0.0000030299 0.0000026511 0.0000032932 0.01 1.00
C 0.0000002729 -0.0000010408 -0.0000011328 0.01 1.00
C 0.0000018676 0.0000016196 -0.0000003486 0.01 1.00
C 0.0000073757 0.0000127462 0.0000137072 0.01 1.00
C 0.0000180259 0.0000244923 0.0000325431 0.01 1.00
C -0.0000012950 -0.0000018121 0.0000004688 0.01 1.00
C -0.0000020213 -0.0000015103 0.0000002184 0.01 1.00
C -0.0000012524 0.0000040830 0.0000049677 0.01 1.00
C 0.0000016991 0.0000097085 0.0000111760 0.01 1.00
C 0.0000011570 0.0000010049 0.0000044481 0.01 1.00
C -0.0000036156 -0.0000030141 -0.0000005370 0.01 1.00
C -0.0000036161 0.0000014433 0.0000004414 0.01 1.00
C 0.0000056463 0.0000137751 0.0000158602 0.01 1.00
C -0.0000025274 -0.0000005582 0.0000029233 0.01 1.00
C -0.0000073517 -0.0000034608 -0.0000039847 0.01 1.00
C 0.0000012147 0.0000061910 0.0000053599 0.01 1.00
C 0.0000027845 0.0000073018 0.0000076960 0.01 1.00
C -0.0000092818 -0.0000082455 -0.0000093251 0.01 1.00
C -0.0000068028 -0.0000048874 -0.0000075413 0.01 1.00
C -0.0000006298 0.0000033282 -0.0000039641 0.01 1.00
C 0.0000005543 0.0000035730 0.0000008295 0.01 1.00
C -0.0000052765 -0.0000070167 -0.0000064814 0.01 1.00
C -0.0000077937 -0.0000084754 -0.0000139306 0.01 1.00
C -0.0000007431 0.0000002696 -0.0000086239 0.01 1.00
C 0.0000010363 0.0000055251 -0.0000060641 0.01 1.00
C -0.0000002760 -0.0000014292 -0.0000011961 0.01 1.00
C -0.0000022182 -0.0000041652 -0.0000041681 0.01 1.00
C 0.0000016930 0.0000011286 -0.0000029961 0.01 1.00
C 0.0000015942 0.0000013669 -0.0000005808 0.01 1.00
C -0.0000016659 -0.0000026917 -0.0000042886 0.01 1.00
C -0.0000028765 -0.0000038909 -0.0000076779 0.01 1.00
C 0.0000010706 0.0000017909 0.0000009512 0.01 1.00
C 0.0000018870 0.0000028914 0.0000024693 0.01 1.00
C -0.0000000166 -0.0000000690 0.0000000248 0.01 1.00
C -0.0000010402 -0.0000017323 -0.0000016617 0.01 1.00
C 0.0000003255 0.0000010369 0.0000029332 0.01 1.00
C 0.0000018157 0.0000039067 0.0000067597 0.01 1.00
C 0.0000016398 0.0000025864 0.0000043175 0.01 1.00
C -0.0000000178 0.0000005686 0.0000016901 0.01 1.00
C -0.0000006205 0.0000001934 0.0000030202 0.01 1.00
C 0.0000103137 0.0000130107 0.0000216662 0.01 1.00
C 0.0000038441 0.0000047771 0.0000076907 0.01 1.00
C -0.0000018467 -0.0000018939 -0.0000000013 0.01 1.00
C 0.0000039996 0.0000060944 0.0000097490 0.01 1.00
C 0.0000076903 0.0000104153 0.0000144313 0.01 1.00
C -0.0000018889 -0.0000026708 -0.0000029618 0.01 1.00
C -0.0000028048 -0.0000037036 -0.0000030394 0.01 1.00
C -0.0000000150 -0.0000000694 -0.0000000053 0.01 1.00
C 0.0000035990 0.0000040090 0.0000051172 0.01 1.00
C 0.0000008368 0.0000001453 -0.0000010259 0.01 1.00
C -0.0000029212 -0.0000049957 -0.0000068207 0.01 1.00
C -0.0000036380 -0.0000058301 -0.0000097577 0.01 1.00
C -0.0000010702 -0.0000015799 -0.0000051096 0.01 1.00
C 0.0000041442 0.0000046955 0.0000029943 0.01 1.00
C 0.0000003406 -0.0000005263 -0.0000026009 0.01 1.00
C -0.0000039975 -0.0000068248 -0.0000144441 0.01 1.00
C 0.0000017994 0.0000017739 0.0000000358 0.01 1.00
C 0.0000020000 0.0000021894 0.0000006275 0.01 1.00
C -0.0000086285 -0.0000114127 -0.0000216885 0.01 1.00
C -0.0000020840 -0.0000102750 -0.0000158861 0.01 1.00
C -0.0000003938 -0.0000049537 -0.0000076930 0.01 1.00
C 0.0000012700 0.0000017230 -0.0000003823 0.01 1.00
C -0.0000005673 -0.0000001981 -0.0000032334 0.01 1.00
C -0.0000033975 -0.0000033111 -0.0000044308 0.01 1.00
C -0.0000034731 -0.0000054919 -0.0000029408 0.01 1.00
C -0.0000002141 0.0000008927 0.0000012496 0.01 1.00
C -0.0000000308 0.0000016210 0.0000006720 0.01 1.00
C -0.0000024167 -0.0000030936 0.0000005329 0.01 1.00
C -0.0000005778 0.0000011314 0.0000064395 0.01 1.00
C 0.0000000047 0.0000018916 0.0000041717 0.01 1.00
C -0.0000022027 -0.0000017739 -0.0000004412 0.01 1.00
C 0.0000011161 0.0000000084 0.0000092930 0.01 1.00
C 0.0000054863 0.0000060872 0.0000139082 0.01 1.00
C 0.0000001405 0.0000013483 0.0000011374 0.01 1.00
C -0.0000016656 -0.0000022715 -0.0000002084 0.01 1.00
C 0.0000005785 -0.0000033898 0.0000039603 0.01 1.00
C 0.0000027180 0.0000007150 0.0000075311 0.01 1.00
C 0.0000048702 0.0000050083 0.0000043001 0.01 1.00
C 0.0000019996 0.0000021387 0.0000003212 0.01 1.00
C -0.0000008647 -0.0000062771 -0.0000049939 0.01 1.00
C 0.0000010433 -0.0000041013 -0.0000004608 0.01 1.00
C 0.0000089809 0.0000078714 0.0000086102 0.01 1.00
C 0.0000075340 0.0000064200 0.0000033893 0.01 1.00
C -0.0000015412 -0.0000095756 -0.0000112315 0.01 1.00
C 0.0000073601 0.0000033192 0.0000039948 0.01 1.00
C 0.0000116575 0.0000070918 0.0000060826 0.01 1.00
C -0.0000011807 -0.0000065117 -0.0000138724 0.01 1.00
C 0.0000008466 -0.0000041941 -0.0000053544 0.01 1.00
C 0.0000027985 -0.0000002825 -0.0000007596 0.01 1.00
C 0.0000040905 0.0000000403 -0.0000075993 0.01 1.00
C -0.0000080862 -0.0000145696 -0.0000326010 0.01 1.00
C -0.0000177995 -0.0000320672 -0.0000594106 0.01 1.00
C -0.0000067830 -0.0000219615 -0.0000316833 0.01 1.00
C 0.0000018998 -0.0000010544 -0.0000005720 0.01 1.00
C 0.0000036053 0.0000030418 0.0000007535 0.01 1.00
C -0.0000089180 -0.0000107078 -0.0000107439 0.01 1.00
C -0.0000052688 -0.0000074874 -0.0000016947 0.01 1.00
C -0.0000020389 -0.0000017408 0.0000001967 0.01 1.00
C -0.0000028451 0.0000001258 -0.0000028113 0.01 1.00
C -0.0000105016 -0.0000117109 0.0000068333 0.01 1.00
C -0.0000061392 -0.0000053774 0.0000049415 0.01 1.00
C -0.0000016733 0.0000026425 0.0000010184 0.01 1.00
C -0.0000029592 0.0000004529 -0.0000002169 0.01 1.00
C -0.0000047334 -0.0000105717 0.0000076121 0.01 1.00
C -0.0000041023 -0.0000074174 0.0000078131 0.01 1.00
C -0.0000000638 0.0000030525 0.0000030923 0.01 1.00
C -0.0000001167 0.0000040765 0.0000019101 0.01 1.00
C -0.0000017837 -0.0000046991 -0.0000006061 0.01 1.00
C -0.0000011050 -0.0000071131 0.0000044516 0.01 1.00
C 0.0000043781 0.0000039958 0.0000087113 0.01 1.00
C 0.0000039555 0.0000054083 0.0000044368 0.01 1.00
C 0.0000003466 -0.0000073371 -0.0000045419 0.01 1.00
C 0.0000049306 -0.0000000334 0.0000049281 0.01 1.00
C 0.0000077357 0.0000049668 0.0000067779 0.01 1.00
C 0.0000052157 0.0000035269 -0.0000021874 0.01 1.00
C 0.0000036450 -0.0000061549 -0.0000021192 0.01 1.00
C 0.0000068180 -0.0000007391 0.0000020309 0.01 1.00
C 0.0000144029 0.0000100724 0.0000014766 0.01 1.00
C 0.0000106934 0.0000054282 -0.0000068854 0.01 1.00
C 0.0000000642 -0.0000152480 -0.0000151917 0.01 1.00
C 0.0000016750 -0.0000096572 -0.0000078928 0.01 1.00
C 0.0000183570 0.0000106174 0.0000059960 0.01 1.00
C 0.0000277918 0.0000152760 0.0000041826 0.01 1.00
