data_c2x

_cell_length_a      12.3564504
_cell_length_b      12.3564504
_cell_length_c      12.3564504
_cell_angle_alpha   109.4712206
_cell_angle_beta    109.4712206
_cell_angle_gamma   109.4712206


loop_
_atom_site_type_symbol
_atom_site_fract_x
_atom_site_fract_y
_atom_site_fract_z
_atom_site_U_iso_or_equiv
_atom_site_occupancy
C 0.0000382906 -0.0000610430 0.0000221018 0.01 1.00
C 0.0000005411 -0.0000027186 -0.0000119613 0.01 1.00
C 0.0000020997 -0.0000011895 -0.0000034959 0.01 1.00
C 0.0000401618 0.0000016544 0.0000321949 0.01 1.00
C 0.0000233605 -0.0000059172 -0.0000396209 0.01 1.00
C 0.0000104447 -0.0000026909 -0.0000240273 0.01 1.00
C 0.0000191654 0.0000005043 0.0000119304 0.01 1.00
C 0.0000368018 0.0000016814 0.0000243538 0.01 1.00
C 0.0000306007 -0.0000014169 0.0000384491 0.01 1.00
C 0.0000136993 0.0000036266 -0.0000046011 0.01 1.00
C 0.0000063722 -0.0000016815 -0.0000013413 0.01 1.00
C 0.0000112991 -0.0000017282 0.0000051641 0.01 1.00
C 0.0000105288 -0.0000015725 0.0000122736 0.01 1.00
C 0.0000138901 -0.0000006307 0.0000212445 0.01 1.00
C 0.0000031162 -0.0000000127 -0.0000033330 0.01 1.00
C 0.0000031544 -0.0000021063 -0.0000024233 0.01 1.00
C 0.0000035077 -0.0000036637 0.0000039334 0.01 1.00
C 0.0000030272 0.0000019461 0.0000007967 0.01 1.00
C 0.0000013292 -0.0000003080 -0.0000017248 0.01 1.00
C 0.0000006681 -0.0000060869 0.0000002124 0.01 1.00
C 0.0000016265 -0.0000013530 0.0000009132 0.01 1.00
C 0.0000012906 0.0000004811 0.0000007874 0.01 1.00
C -0.0000029688 -0.0000063808 -0.0000031182 0.01 1.00
C -0.0000042067 -0.0000104489 -0.0000040805 0.01 1.00
C -0.0000025844 -0.0000132920 -0.0000087295 0.01 1.00
C -0.0000013230 -0.0000056462 -0.0000044712 0.01 1.00
C -0.0000010308 -0.0000018930 0.0000010414 0.01 1.00
C -0.0000035110 -0.0000061282 -0.0000007173 0.01 1.00
C -0.0000238604 -0.0000635176 -0.0000297902 0.01 1.00
C -0.0000086636 -0.0000270760 -0.0000192166 0.01 1.00
C -0.0000002611 -0.0000007316 -0.0000013481 0.01 1.00
C 0.0000002550 -0.0000009249 0.0000024335 0.01 1.00
C -0.0000284963 -0.0000047152 -0.0000364753 0.01 1.00
C -0.0000131246 0.0000001518 -0.0000165434 0.01 1.00
C -0.0000053918 -0.0000027499 0.0000030850 0.01 1.00
C -0.0000080554 -0.0000035582 0.0000102114 0.01 1.00
C -0.0000401386 -0.0000160797 -0.0000992961 0.01 1.00
C -0.0000008423 -0.0000002930 -0.0000016528 0.01 1.00
C 0.0000019228 0.0000008179 0.0000051198 0.01 1.00
C 0.0000317866 0.0000084422 0.0000365032 0.01 1.00
C 0.0000833089 0.0000612945 0.0000993248 0.01 1.00
C -0.0000011079 -0.0000011877 -0.0000110466 0.01 1.00
C 0.0000010752 -0.0000000504 -0.0000027722 0.01 1.00
C 0.0000166762 0.0000038461 0.0000165767 0.01 1.00
C 0.0000070733 0.0000072214 -0.0000000200 0.01 1.00
C 0.0000035331 0.0000029483 -0.0000025768 0.01 1.00
C 0.0000081223 -0.0000004382 0.0000069931 0.01 1.00
C 0.0000095682 0.0000105340 0.0000110303 0.01 1.00
C 0.0000053607 0.0000062422 0.0000025238 0.01 1.00
C 0.0000012942 -0.0000022110 -0.0000009253 0.01 1.00
C 0.0000031788 -0.0000023542 0.0000016008 0.01 1.00
C 0.0000014071 0.0000010908 0.0000017703 0.01 1.00
C 0.0000025663 0.0000040499 0.0000027867 0.01 1.00
C 0.0000000891 0.0000000178 -0.0000000305 0.01 1.00
C -0.0000011481 -0.0000029574 -0.0000016009 0.01 1.00
C -0.0000057855 -0.0000085007 -0.0000030970 0.01 1.00
C -0.0000042536 -0.0000031292 -0.0000051242 0.01 1.00
C -0.0000012639 0.0000021636 0.0000008727 0.01 1.00
C -0.0000013205 0.0000003590 0.0000015513 0.01 1.00
C -0.0000137149 -0.0000183033 -0.0000101627 0.01 1.00
C -0.0000075158 0.0000011595 -0.0000070203 0.01 1.00
C -0.0000039835 0.0000015582 -0.0000016262 0.01 1.00
C -0.0000070604 -0.0000071203 0.0000000301 0.01 1.00
C -0.0000305612 0.0000078370 -0.0000319033 0.01 1.00
C -0.0000227621 0.0000123672 -0.0000242525 0.01 1.00
C -0.0000063135 0.0000003756 -0.0000002187 0.01 1.00
C -0.0000063612 -0.0000002336 0.0000040388 0.01 1.00
C -0.0000337017 0.0000058787 0.0000297855 0.01 1.00
C -0.0000831484 0.0000160270 -0.0000215908 0.01 1.00
C -0.0000142459 -0.0000017915 -0.0000120529 0.01 1.00
C -0.0000076722 -0.0000004607 -0.0000037130 0.01 1.00
C -0.0000077773 0.0000105805 0.0000191719 0.01 1.00
C -0.0000405594 -0.0000079273 -0.0000385077 0.01 1.00
C -0.0000225248 -0.0000075152 -0.0000213804 0.01 1.00
C -0.0000045647 0.0000060536 0.0000086680 0.01 1.00
C 0.0000337801 0.0000636105 0.0000396832 0.01 1.00
C 0.0000080845 0.0000184284 0.0000045789 0.01 1.00
C -0.0000023527 0.0000006261 -0.0000009677 0.01 1.00
C -0.0000012152 0.0000030485 0.0000043993 0.01 1.00
C 0.0000092852 0.0000128614 0.0000118753 0.01 1.00
C 0.0000214511 0.0000350794 0.0000241384 0.01 1.00
C 0.0000011329 0.0000021641 -0.0000008446 0.01 1.00
C -0.0000003106 0.0000004073 -0.0000008371 0.01 1.00
C 0.0000006159 0.0000011131 0.0000013717 0.01 1.00
C 0.0000023608 0.0000059778 0.0000036824 0.01 1.00
C 0.0000033180 0.0000064005 0.0000032522 0.01 1.00
C 0.0000014356 0.0000029574 0.0000016633 0.01 1.00
C -0.0000033285 -0.0000022153 -0.0000024274 0.01 1.00
C -0.0000002897 0.0000077693 0.0000013335 0.01 1.00
C 0.0000003394 0.0000055199 0.0000023616 0.01 1.00
C -0.0000028894 -0.0000021538 -0.0000010597 0.01 1.00
C -0.0000113825 0.0000072228 -0.0000118893 0.01 1.00
C -0.0000068503 0.0000061366 -0.0000051595 0.01 1.00
C -0.0000032310 0.0000000366 0.0000030795 0.01 1.00
C -0.0000053410 -0.0000028461 0.0000007725 0.01 1.00
C -0.0000096558 0.0000013226 0.0000007424 0.01 1.00
C -0.0000138687 0.0000073475 -0.0000143999 0.01 1.00
C -0.0000066572 0.0000030351 -0.0000042126 0.01 1.00
C -0.0000046390 0.0000018868 0.0000008477 0.01 1.00
C -0.0000213939 0.0000026432 0.0000135944 0.01 1.00
C -0.0000194102 0.0000000062 -0.0000192422 0.01 1.00
C -0.0000134944 -0.0000004073 -0.0000112948 0.01 1.00
C -0.0000120157 0.0000011088 0.0000111197 0.01 1.00
C -0.0000316816 0.0000047728 -0.0000230359 0.01 1.00
C -0.0000367854 -0.0000123628 -0.0000349820 0.01 1.00
C -0.0000083227 -0.0000007687 -0.0000004352 0.01 1.00
C -0.0000073283 0.0000017488 0.0000058789 0.01 1.00
C 0.0000000500 0.0000122217 0.0000122619 0.01 1.00
C 0.0000078573 0.0000269712 0.0000184567 0.01 1.00
C -0.0000148094 -0.0000050717 -0.0000109551 0.01 1.00
C -0.0000094727 -0.0000033879 -0.0000047310 0.01 1.00
C -0.0000003923 0.0000037530 0.0000037436 0.01 1.00
C 0.0000021836 0.0000094143 0.0000081743 0.01 1.00
C 0.0000054524 0.0000085572 0.0000026358 0.01 1.00
C -0.0000002150 0.0000022257 -0.0000012016 0.01 1.00
C 0.0000000068 0.0000019338 0.0000006748 0.01 1.00
C 0.0000121071 0.0000232274 0.0000131535 0.01 1.00
C 0.0000064308 0.0000104733 0.0000060811 0.01 1.00
C -0.0000007256 -0.0000000531 -0.0000007790 0.01 1.00
C 0.0000014324 0.0000089955 -0.0000000020 0.01 1.00
C 0.0000062810 0.0000148430 0.0000064645 0.01 1.00
C 0.0000013408 0.0000021701 0.0000033631 0.01 1.00
C -0.0000011932 -0.0000005027 -0.0000008206 0.01 1.00
C -0.0000057962 0.0000049630 -0.0000095435 0.01 1.00
C -0.0000045557 0.0000073426 -0.0000073494 0.01 1.00
C 0.0000000418 0.0000038962 0.0000038475 0.01 1.00
C -0.0000002828 0.0000020727 0.0000051515 0.01 1.00
C -0.0000028494 -0.0000001409 0.0000013931 0.01 1.00
C -0.0000036632 0.0000037344 -0.0000068386 0.01 1.00
C -0.0000010254 0.0000046477 -0.0000013504 0.01 1.00
C 0.0000002950 0.0000016022 0.0000080439 0.01 1.00
C -0.0000106163 0.0000017785 -0.0000117805 0.01 1.00
C -0.0000110407 0.0000004261 -0.0000128994 0.01 1.00
C -0.0000046190 -0.0000001541 0.0000046066 0.01 1.00
C -0.0000061467 0.0000002319 0.0000085779 0.01 1.00
C -0.0000092097 0.0000025048 0.0000036367 0.01 1.00
C -0.0000165463 -0.0000000242 -0.0000125817 0.01 1.00
C -0.0000105345 -0.0000036871 -0.0000074156 0.01 1.00
C -0.0000074679 -0.0000024142 -0.0000010052 0.01 1.00
C -0.0000038327 0.0000012228 0.0000047319 0.01 1.00
C -0.0000020861 0.0000059813 0.0000073012 0.01 1.00
C -0.0000191012 -0.0000071999 -0.0000186215 0.01 1.00
C -0.0000147074 -0.0000073014 -0.0000119671 0.01 1.00
C -0.0000029238 0.0000000599 0.0000013853 0.01 1.00
C 0.0000046196 0.0000132536 0.0000106426 0.01 1.00
C -0.0000019513 0.0000031603 -0.0000011766 0.01 1.00
C -0.0000059056 -0.0000033355 -0.0000025809 0.01 1.00
C 0.0000039377 0.0000086267 0.0000051158 0.01 1.00
C 0.0000073756 0.0000132471 0.0000090833 0.01 1.00
C 0.0000002385 -0.0000010881 -0.0000005140 0.01 1.00
C -0.0000012918 -0.0000020140 -0.0000020260 0.01 1.00
C 0.0000008237 0.0000032318 -0.0000025990 0.01 1.00
C 0.0000028198 0.0000069137 0.0000006282 0.01 1.00
C 0.0000063204 0.0000061071 0.0000065615 0.01 1.00
C 0.0000039816 0.0000023267 0.0000053828 0.01 1.00
C -0.0000015858 -0.0000007968 -0.0000029847 0.01 1.00
C -0.0000012825 0.0000032469 -0.0000060281 0.01 1.00
C 0.0000047701 0.0000093456 0.0000045324 0.01 1.00
C 0.0000047566 0.0000055766 0.0000065251 0.01 1.00
C 0.0000003449 0.0000007263 -0.0000075327 0.01 1.00
C 0.0000014632 0.0000024290 -0.0000050871 0.01 1.00
C 0.0000067736 0.0000024791 0.0000097121 0.01 1.00
C 0.0000069196 0.0000016940 0.0000129791 0.01 1.00
C -0.0000014782 0.0000001813 -0.0000003652 0.01 1.00
C -0.0000035672 0.0000004143 -0.0000070989 0.01 1.00
C 0.0000000958 0.0000000094 0.0000000086 0.01 1.00
C 0.0000012035 -0.0000002492 0.0000057238 0.01 1.00
C -0.0000012638 -0.0000014371 0.0000075736 0.01 1.00
C -0.0000023009 0.0000010406 0.0000034353 0.01 1.00
C -0.0000071890 -0.0000030300 -0.0000097035 0.01 1.00
C -0.0000059022 -0.0000046212 -0.0000057202 0.01 1.00
C -0.0000026570 -0.0000021526 0.0000041402 0.01 1.00
C -0.0000079853 -0.0000010695 -0.0000084136 0.01 1.00
C -0.0000111904 -0.0000061065 -0.0000129657 0.01 1.00
C -0.0000045855 -0.0000046537 -0.0000000200 0.01 1.00
C 0.0000004938 0.0000041618 0.0000041932 0.01 1.00
C 0.0000012914 0.0000056413 0.0000043105 0.01 1.00
C -0.0000090025 -0.0000088848 -0.0000076189 0.01 1.00
C -0.0000062901 -0.0000069107 -0.0000042243 0.01 1.00
C 0.0000000552 -0.0000000525 -0.0000000521 0.01 1.00
C 0.0000030202 0.0000043525 0.0000030285 0.01 1.00
C 0.0000005808 -0.0000009546 0.0000003421 0.01 1.00
C -0.0000024458 -0.0000056353 -0.0000033696 0.01 1.00
C -0.0000000130 -0.0000038714 -0.0000042504 0.01 1.00
C 0.0000013665 -0.0000001715 -0.0000030821 0.01 1.00
C 0.0000082829 0.0000078985 0.0000074918 0.01 1.00
C 0.0000073599 0.0000037445 0.0000068672 0.01 1.00
C 0.0000013580 -0.0000031852 -0.0000043446 0.01 1.00
C 0.0000047217 0.0000046774 0.0000000182 0.01 1.00
C 0.0000075759 0.0000065556 0.0000050999 0.01 1.00
C 0.0000074286 0.0000003575 0.0000084345 0.01 1.00
C 0.0000026064 -0.0000061490 -0.0000107090 0.01 1.00
C 0.0000041414 -0.0000018198 -0.0000091259 0.01 1.00
C 0.0000106443 0.0000031667 0.0000068881 0.01 1.00
C 0.0000134900 0.0000020519 0.0000130057 0.01 1.00
C 0.0000114895 -0.0000005033 0.0000186409 0.01 1.00
C 0.0000043383 -0.0000008521 0.0000011638 0.01 1.00
C 0.0000048099 0.0000001480 -0.0000045069 0.01 1.00
C 0.0000060510 0.0000002628 0.0000013758 0.01 1.00
C 0.0000047331 -0.0000027613 0.0000119389 0.01 1.00
C -0.0000005587 -0.0000003908 -0.0000066580 0.01 1.00
C -0.0000009741 -0.0000019049 -0.0000065709 0.01 1.00
C 0.0000038359 -0.0000031386 0.0000074319 0.01 1.00
C -0.0000005049 0.0000007210 0.0000004891 0.01 1.00
C -0.0000029948 -0.0000014835 -0.0000054036 0.01 1.00
C -0.0000046766 -0.0000093125 -0.0000046323 0.01 1.00
C -0.0000013065 -0.0000065152 0.0000010000 0.01 1.00
C -0.0000006836 -0.0000033823 0.0000024673 0.01 1.00
C 0.0000001134 0.0000006789 0.0000019651 0.01 1.00
C -0.0000063083 -0.0000077348 -0.0000080680 0.01 1.00
C -0.0000082673 -0.0000148049 -0.0000086245 0.01 1.00
C -0.0000034837 -0.0000086827 -0.0000048271 0.01 1.00
C -0.0000012761 -0.0000044173 -0.0000014987 0.01 1.00
C 0.0000023562 0.0000013891 0.0000029718 0.01 1.00
C -0.0000012567 -0.0000040156 -0.0000013343 0.01 1.00
C -0.0000014068 -0.0000095421 -0.0000073996 0.01 1.00
C 0.0000059531 0.0000033633 0.0000025882 0.01 1.00
C 0.0000094433 0.0000047400 0.0000060425 0.01 1.00
C -0.0000013420 -0.0000130031 -0.0000037830 0.01 1.00
C 0.0000035218 -0.0000013045 -0.0000051692 0.01 1.00
C 0.0000063582 0.0000021268 -0.0000005937 0.01 1.00
C 0.0000138614 0.0000016501 0.0000120201 0.01 1.00
C 0.0000126479 -0.0000038754 0.0000126718 0.01 1.00
C 0.0000279366 -0.0000085418 0.0000231225 0.01 1.00
C 0.0000084145 -0.0000106836 -0.0000185595 0.01 1.00
C 0.0000089960 0.0000014121 0.0000001122 0.01 1.00
C 0.0000147557 0.0000027822 0.0000074259 0.01 1.00
C 0.0000227377 -0.0000016265 0.0000350783 0.01 1.00
C 0.0000099066 -0.0000011466 -0.0000130987 0.01 1.00
C 0.0000083084 -0.0000002679 -0.0000064052 0.01 1.00
C 0.0000194175 0.0000000272 0.0000193452 0.01 1.00
C 0.0000058980 0.0000027723 -0.0000026730 0.01 1.00
C 0.0000043312 0.0000002370 -0.0000061409 0.01 1.00
C 0.0000073192 -0.0000024770 0.0000042252 0.01 1.00
C 0.0000110770 -0.0000019926 0.0000114162 0.01 1.00
C 0.0000059470 -0.0000037115 0.0000108329 0.01 1.00
C 0.0000034722 0.0000009700 0.0000011510 0.01 1.00
C 0.0000000778 -0.0000039064 -0.0000039091 0.01 1.00
C 0.0000011131 -0.0000055552 -0.0000008729 0.01 1.00
C -0.0000002234 -0.0000078655 0.0000004290 0.01 1.00
C 0.0000014199 -0.0000047002 0.0000046059 0.01 1.00
C -0.0000011153 -0.0000021070 -0.0000034118 0.01 1.00
C -0.0000029943 -0.0000055022 -0.0000052075 0.01 1.00
C -0.0000040730 -0.0000132774 -0.0000059536 0.01 1.00
C 0.0000008200 -0.0000000041 0.0000007317 0.01 1.00
C 0.0000004233 -0.0000004453 0.0000007751 0.01 1.00
C -0.0000099482 -0.0000231932 -0.0000111805 0.01 1.00
C 0.0000000366 -0.0000042284 -0.0000038282 0.01 1.00
C 0.0000013382 -0.0000007135 -0.0000007032 0.01 1.00
C 0.0000008397 -0.0000102192 -0.0000005066 0.01 1.00
C -0.0000108666 -0.0000349869 -0.0000135612 0.01 1.00
C -0.0000001390 -0.0000123421 -0.0000123463 0.01 1.00
C 0.0000011223 -0.0000061323 -0.0000082747 0.01 1.00
C 0.0000146913 0.0000038009 0.0000096377 0.01 1.00
C 0.0000220999 0.0000007754 0.0000146015 0.01 1.00
